Use the approach and the data structures used in the text book and class-------------------------------------
time complexity should be O(n^2)---------------------------------------------------------------------------------------------------
use the same algorithm as taught in class and class text
Input is a txt file with specified format------------------------------------------------------------------------------------------
Format of the output file should be as specified------------------------------------------------------------------------------------
Naming conventions : --------------------------------------------------------------------------------
program file: assignment1.py----------------------------------------------------------------
Input file: Input.txt-----------------------------------------------------------------------
Output file: Output.txt------------------------------------------------------------------------------
The python program should receive only one argument from command line ----------------------------------------
and generate file in current working directory--------------------------------------------------------------
Create Tests folder in current working directory with Several Input and corresponding output files--------------------------------------------
Include pseudo code of the gale shapely algorithm in program as comments to see the correspondence between ur code and the algorithm
U must use python 3----------------------------------------------------------------------------------
Provide the team member names, email ids in source code files and README.txt---------------------------------
Submission name should be Assignment1.zip

QUESTIONS:
can u plz provide me with a test case where i could not find stable pairs using gale shapely algorithm?
should i follow the text alignments in the output file?
by receiving only one argument from command line do u want me to put restriction on command line arguments length ?
